
     RDKit          3D

 22 24  0  0  0  0  0  0  0  0999 V2000
   10.4784   62.6727   -3.6872 O   0  0  0  0  0  0  0  0  0  0  0  0
   10.3267   62.8870   -4.9185 C   0  0  0  0  0  0  0  0  0  0  0  0
   11.2813   63.6586   -5.5441 O   0  0  0  0  0  0  0  0  0  0  0  0
    9.1792   62.3209   -5.5945 C   0  0  0  0  0  0  0  0  0  0  0  0
    8.3313   61.4510   -4.9874 C   0  0  0  0  0  0  0  0  0  0  0  0
    7.2426   60.9226   -5.6501 C   0  0  0  0  0  0  0  0  0  0  0  0
    6.4426   60.0441   -4.9355 O   0  0  0  0  0  0  0  0  0  0  0  0
    5.0120   60.0671   -5.0687 C   0  0  0  0  0  0  0  0  0  0  0  0
    4.5276   58.7391   -4.7035 C   0  0  0  0  0  0  0  0  0  0  0  0
    4.7094   58.2654   -3.4217 C   0  0  0  0  0  0  0  0  0  0  0  0
    4.2767   57.0144   -3.0242 C   0  0  0  0  0  0  0  0  0  0  0  0
    3.6356   56.2153   -3.9645 C   0  0  0  0  0  0  0  0  0  0  0  0
    3.4367   56.6579   -5.2570 C   0  0  0  0  0  0  0  0  0  0  0  0
    2.7984   55.8647   -6.1916 C   0  0  0  0  0  0  0  0  0  0  0  0
    2.6075   56.3153   -7.4637 C   0  0  0  0  0  0  0  0  0  0  0  0
    3.0455   57.5618   -7.8351 C   0  0  0  0  0  0  0  0  0  0  0  0
    3.6802   58.3328   -6.8807 C   0  0  0  0  0  0  0  0  0  0  0  0
    3.8910   57.9229   -5.6032 C   0  0  0  0  0  0  0  0  0  0  0  0
    6.9945   61.2748   -6.9588 C   0  0  0  0  0  0  0  0  0  0  0  0
    7.8538   62.1581   -7.5782 C   0  0  0  0  0  0  0  0  0  0  0  0
    8.9404   62.6850   -6.9155 C   0  0  0  0  0  0  0  0  0  0  0  0
    9.8042   63.5723   -7.5358 O   0  0  0  0  0  0  0  0  0  0  0  0
  1  2  2  0
  2  3  1  0
  2  4  1  0
  4  5  2  0
  5  6  1  0
  6  7  1  0
  7  8  1  0
  8  9  1  0
  9 10  2  0
 10 11  1  0
 11 12  2  0
 12 13  1  0
 13 14  2  0
 14 15  1  0
 15 16  2  0
 16 17  1  0
 17 18  2  0
  6 19  2  0
 19 20  1  0
 20 21  2  0
 21 22  1  0
 21  4  1  0
 18  9  1  0
 18 13  1  0
M  END
$$$$
