
     RDKit          3D

 22 24  0  0  0  0  0  0  0  0999 V2000
    9.6802   64.0600   -5.8682 O   0  0  0  0  0  0  0  0  0  0  0  0
    8.5996   63.4537   -5.6450 C   0  0  0  0  0  0  0  0  0  0  0  0
    7.4315   64.1511   -5.8623 O   0  0  0  0  0  0  0  0  0  0  0  0
    8.6449   62.0837   -5.1811 C   0  0  0  0  0  0  0  0  0  0  0  0
    7.5227   61.3522   -4.9578 C   0  0  0  0  0  0  0  0  0  0  0  0
    7.5879   60.0470   -4.5153 C   0  0  0  0  0  0  0  0  0  0  0  0
    6.3811   59.3928   -4.3201 O   0  0  0  0  0  0  0  0  0  0  0  0
    5.1764   60.1250   -4.0415 C   0  0  0  0  0  0  0  0  0  0  0  0
    4.5773   60.4672   -5.3282 C   0  0  0  0  0  0  0  0  0  0  0  0
    4.2557   61.7768   -5.6144 C   0  0  0  0  0  0  0  0  0  0  0  0
    3.6816   62.1552   -6.8134 C   0  0  0  0  0  0  0  0  0  0  0  0
    3.4247   61.1658   -7.7561 C   0  0  0  0  0  0  0  0  0  0  0  0
    3.7340   59.8444   -7.5027 C   0  0  0  0  0  0  0  0  0  0  0  0
    3.4802   58.8607   -8.4398 C   0  0  0  0  0  0  0  0  0  0  0  0
    3.7923   57.5603   -8.1767 C   0  0  0  0  0  0  0  0  0  0  0  0
    4.3626   57.2086   -6.9790 C   0  0  0  0  0  0  0  0  0  0  0  0
    4.6049   58.2121   -6.0611 C   0  0  0  0  0  0  0  0  0  0  0  0
    4.3097   59.5191   -6.2823 C   0  0  0  0  0  0  0  0  0  0  0  0
    8.8117   59.4558   -4.2894 C   0  0  0  0  0  0  0  0  0  0  0  0
    9.9533   60.1961   -4.5153 C   0  0  0  0  0  0  0  0  0  0  0  0
    9.8869   61.4991   -4.9571 C   0  0  0  0  0  0  0  0  0  0  0  0
   11.0322   62.2440   -5.1846 O   0  0  0  0  0  0  0  0  0  0  0  0
  1  2  2  0
  2  3  1  0
  2  4  1  0
  4  5  2  0
  5  6  1  0
  6  7  1  0
  7  8  1  0
  8  9  1  0
  9 10  2  0
 10 11  1  0
 11 12  2  0
 12 13  1  0
 13 14  2  0
 14 15  1  0
 15 16  2  0
 16 17  1  0
 17 18  2  0
  6 19  2  0
 19 20  1  0
 20 21  2  0
 21 22  1  0
 21  4  1  0
 18  9  1  0
 18 13  1  0
M  END
$$$$
