
     RDKit          3D

 22 24  0  0  0  0  0  0  0  0999 V2000
   10.9952   63.1857   -5.8357 O   0  0  0  0  0  0  0  0  0  0  0  0
    9.8965   63.1888   -6.4504 C   0  0  0  0  0  0  0  0  0  0  0  0
    9.7567   64.0904   -7.4827 O   0  0  0  0  0  0  0  0  0  0  0  0
    8.8615   62.2620   -6.0451 C   0  0  0  0  0  0  0  0  0  0  0  0
    9.0594   61.3227   -5.0846 C   0  0  0  0  0  0  0  0  0  0  0  0
    8.0589   60.4484   -4.7128 C   0  0  0  0  0  0  0  0  0  0  0  0
    8.3689   59.5296   -3.7217 O   0  0  0  0  0  0  0  0  0  0  0  0
    7.3516   59.0005   -2.8557 C   0  0  0  0  0  0  0  0  0  0  0  0
    7.9759   57.9515   -2.0547 C   0  0  0  0  0  0  0  0  0  0  0  0
    8.8306   58.2841   -1.0255 C   0  0  0  0  0  0  0  0  0  0  0  0
    9.4529   57.3319   -0.2403 C   0  0  0  0  0  0  0  0  0  0  0  0
    9.1970   55.9923   -0.5114 C   0  0  0  0  0  0  0  0  0  0  0  0
    8.3464   55.6235   -1.5344 C   0  0  0  0  0  0  0  0  0  0  0  0
    8.0905   54.2922   -1.8035 C   0  0  0  0  0  0  0  0  0  0  0  0
    7.2473   53.9427   -2.8156 C   0  0  0  0  0  0  0  0  0  0  0  0
    6.6402   54.9061   -3.5816 C   0  0  0  0  0  0  0  0  0  0  0  0
    6.9141   56.2284   -3.2904 C   0  0  0  0  0  0  0  0  0  0  0  0
    7.7474   56.6202   -2.2922 C   0  0  0  0  0  0  0  0  0  0  0  0
    6.8239   60.5154   -5.3198 C   0  0  0  0  0  0  0  0  0  0  0  0
    6.6197   61.4683   -6.2958 C   0  0  0  0  0  0  0  0  0  0  0  0
    7.6194   62.3408   -6.6660 C   0  0  0  0  0  0  0  0  0  0  0  0
    7.4162   63.2985   -7.6458 O   0  0  0  0  0  0  0  0  0  0  0  0
  1  2  2  0
  2  3  1  0
  2  4  1  0
  4  5  2  0
  5  6  1  0
  6  7  1  0
  7  8  1  0
  8  9  1  0
  9 10  2  0
 10 11  1  0
 11 12  2  0
 12 13  1  0
 13 14  2  0
 14 15  1  0
 15 16  2  0
 16 17  1  0
 17 18  2  0
  6 19  2  0
 19 20  1  0
 20 21  2  0
 21 22  1  0
 21  4  1  0
 18  9  1  0
 18 13  1  0
M  END
$$$$
