
     RDKit          3D

 22 24  0  0  0  0  0  0  0  0999 V2000
    9.6762   64.4291   -6.8088 O   0  0  0  0  0  0  0  0  0  0  0  0
    9.0714   63.3265   -6.7486 C   0  0  0  0  0  0  0  0  0  0  0  0
    8.3506   62.9440   -7.8587 O   0  0  0  0  0  0  0  0  0  0  0  0
    9.1659   62.5379   -5.5389 C   0  0  0  0  0  0  0  0  0  0  0  0
    8.4868   61.3737   -5.3727 C   0  0  0  0  0  0  0  0  0  0  0  0
    8.5908   60.6367   -4.2110 C   0  0  0  0  0  0  0  0  0  0  0  0
    7.8542   59.4638   -4.1476 O   0  0  0  0  0  0  0  0  0  0  0  0
    6.5299   59.4481   -3.5900 C   0  0  0  0  0  0  0  0  0  0  0  0
    5.5943   59.4951   -4.7099 C   0  0  0  0  0  0  0  0  0  0  0  0
    5.7869   58.6813   -5.8059 C   0  0  0  0  0  0  0  0  0  0  0  0
    4.9363   58.6896   -6.8952 C   0  0  0  0  0  0  0  0  0  0  0  0
    3.8498   59.5571   -6.8695 C   0  0  0  0  0  0  0  0  0  0  0  0
    3.6267   60.3858   -5.7881 C   0  0  0  0  0  0  0  0  0  0  0  0
    2.5463   61.2473   -5.7614 C   0  0  0  0  0  0  0  0  0  0  0  0
    2.3375   62.0587   -4.6864 C   0  0  0  0  0  0  0  0  0  0  0  0
    3.1956   62.0324   -3.6157 C   0  0  0  0  0  0  0  0  0  0  0  0
    4.2668   61.1620   -3.6695 C   0  0  0  0  0  0  0  0  0  0  0  0
    4.5119   60.3372   -4.7201 C   0  0  0  0  0  0  0  0  0  0  0  0
    9.3979   61.0772   -3.1850 C   0  0  0  0  0  0  0  0  0  0  0  0
   10.0890   62.2593   -3.3506 C   0  0  0  0  0  0  0  0  0  0  0  0
    9.9844   62.9941   -4.5110 C   0  0  0  0  0  0  0  0  0  0  0  0
   10.6777   64.1813   -4.6792 O   0  0  0  0  0  0  0  0  0  0  0  0
  1  2  2  0
  2  3  1  0
  2  4  1  0
  4  5  2  0
  5  6  1  0
  6  7  1  0
  7  8  1  0
  8  9  1  0
  9 10  2  0
 10 11  1  0
 11 12  2  0
 12 13  1  0
 13 14  2  0
 14 15  1  0
 15 16  2  0
 16 17  1  0
 17 18  2  0
  6 19  2  0
 19 20  1  0
 20 21  2  0
 21 22  1  0
 21  4  1  0
 18  9  1  0
 18 13  1  0
M  END
$$$$
