
     RDKit          3D

 22 24  0  0  0  0  0  0  0  0999 V2000
   10.1027   64.0951   -7.5897 O   0  0  0  0  0  0  0  0  0  0  0  0
    9.2940   63.1654   -7.3313 C   0  0  0  0  0  0  0  0  0  0  0  0
    8.4222   62.7951   -8.3319 O   0  0  0  0  0  0  0  0  0  0  0  0
    9.3252   62.5499   -6.0220 C   0  0  0  0  0  0  0  0  0  0  0  0
    8.4917   61.5361   -5.6730 C   0  0  0  0  0  0  0  0  0  0  0  0
    8.5378   60.9629   -4.4189 C   0  0  0  0  0  0  0  0  0  0  0  0
    7.6417   59.9347   -4.1689 O   0  0  0  0  0  0  0  0  0  0  0  0
    6.7131   59.4985   -5.1751 C   0  0  0  0  0  0  0  0  0  0  0  0
    5.5381   58.9841   -4.4776 C   0  0  0  0  0  0  0  0  0  0  0  0
    5.5026   57.6711   -4.0591 C   0  0  0  0  0  0  0  0  0  0  0  0
    4.4141   57.1310   -3.4005 C   0  0  0  0  0  0  0  0  0  0  0  0
    3.3212   57.9561   -3.1586 C   0  0  0  0  0  0  0  0  0  0  0  0
    3.3229   59.2759   -3.5638 C   0  0  0  0  0  0  0  0  0  0  0  0
    2.2375   60.0969   -3.3225 C   0  0  0  0  0  0  0  0  0  0  0  0
    2.2536   61.3983   -3.7267 C   0  0  0  0  0  0  0  0  0  0  0  0
    3.3464   61.9126   -4.3786 C   0  0  0  0  0  0  0  0  0  0  0  0
    4.4167   61.0695   -4.6065 C   0  0  0  0  0  0  0  0  0  0  0  0
    4.4421   59.7676   -4.2211 C   0  0  0  0  0  0  0  0  0  0  0  0
    9.4444   61.4170   -3.4861 C   0  0  0  0  0  0  0  0  0  0  0  0
   10.2923   62.4464   -3.8375 C   0  0  0  0  0  0  0  0  0  0  0  0
   10.2454   63.0179   -5.0900 C   0  0  0  0  0  0  0  0  0  0  0  0
   11.0962   64.0517   -5.4447 O   0  0  0  0  0  0  0  0  0  0  0  0
  1  2  2  0
  2  3  1  0
  2  4  1  0
  4  5  2  0
  5  6  1  0
  6  7  1  0
  7  8  1  0
  8  9  1  0
  9 10  2  0
 10 11  1  0
 11 12  2  0
 12 13  1  0
 13 14  2  0
 14 15  1  0
 15 16  2  0
 16 17  1  0
 17 18  2  0
  6 19  2  0
 19 20  1  0
 20 21  2  0
 21 22  1  0
 21  4  1  0
 18  9  1  0
 18 13  1  0
M  END
$$$$
