
     RDKit          3D

 22 24  0  0  0  0  0  0  0  0999 V2000
    9.9281   63.6096   -4.1477 O   0  0  0  0  0  0  0  0  0  0  0  0
    9.6980   63.5522   -5.3841 C   0  0  0  0  0  0  0  0  0  0  0  0
   10.1052   64.6232   -6.1492 O   0  0  0  0  0  0  0  0  0  0  0  0
    9.0308   62.3860   -5.9218 C   0  0  0  0  0  0  0  0  0  0  0  0
    8.6920   61.3201   -5.1515 C   0  0  0  0  0  0  0  0  0  0  0  0
    8.0561   60.2176   -5.6841 C   0  0  0  0  0  0  0  0  0  0  0  0
    7.7561   59.1859   -4.8077 O   0  0  0  0  0  0  0  0  0  0  0  0
    6.8481   59.3836   -3.7116 C   0  0  0  0  0  0  0  0  0  0  0  0
    5.5069   59.0933   -4.2103 C   0  0  0  0  0  0  0  0  0  0  0  0
    5.2359   57.8751   -4.7961 C   0  0  0  0  0  0  0  0  0  0  0  0
    3.9866   57.5506   -5.2902 C   0  0  0  0  0  0  0  0  0  0  0  0
    2.9755   58.4993   -5.1852 C   0  0  0  0  0  0  0  0  0  0  0  0
    3.2118   59.7293   -4.6044 C   0  0  0  0  0  0  0  0  0  0  0  0
    2.2069   60.6723   -4.4985 C   0  0  0  0  0  0  0  0  0  0  0  0
    2.4540   61.8819   -3.9213 C   0  0  0  0  0  0  0  0  0  0  0  0
    3.7027   62.1814   -3.4371 C   0  0  0  0  0  0  0  0  0  0  0  0
    4.6879   61.2205   -3.5563 C   0  0  0  0  0  0  0  0  0  0  0  0
    4.4848   60.0037   -4.1241 C   0  0  0  0  0  0  0  0  0  0  0  0
    7.7501   60.1799   -7.0269 C   0  0  0  0  0  0  0  0  0  0  0  0
    8.0929   61.2609   -7.8119 C   0  0  0  0  0  0  0  0  0  0  0  0
    8.7277   62.3611   -7.2790 C   0  0  0  0  0  0  0  0  0  0  0  0
    9.0726   63.4476   -8.0657 O   0  0  0  0  0  0  0  0  0  0  0  0
  1  2  2  0
  2  3  1  0
  2  4  1  0
  4  5  2  0
  5  6  1  0
  6  7  1  0
  7  8  1  0
  8  9  1  0
  9 10  2  0
 10 11  1  0
 11 12  2  0
 12 13  1  0
 13 14  2  0
 14 15  1  0
 15 16  2  0
 16 17  1  0
 17 18  2  0
  6 19  2  0
 19 20  1  0
 20 21  2  0
 21 22  1  0
 21  4  1  0
 18  9  1  0
 18 13  1  0
M  END
$$$$
