
     RDKit          3D

 22 24  0  0  0  0  0  0  0  0999 V2000
   10.9753   63.1105   -4.4674 O   0  0  0  0  0  0  0  0  0  0  0  0
   10.6680   63.1826   -5.6861 C   0  0  0  0  0  0  0  0  0  0  0  0
   11.5625   63.8129   -6.5233 O   0  0  0  0  0  0  0  0  0  0  0  0
    9.4154   62.6100   -6.1305 C   0  0  0  0  0  0  0  0  0  0  0  0
    8.5352   62.0292   -5.2749 C   0  0  0  0  0  0  0  0  0  0  0  0
    7.3460   61.4889   -5.7193 C   0  0  0  0  0  0  0  0  0  0  0  0
    6.5212   60.9210   -4.7604 O   0  0  0  0  0  0  0  0  0  0  0  0
    5.8190   59.6939   -5.0179 C   0  0  0  0  0  0  0  0  0  0  0  0
    4.6216   59.7036   -4.1825 C   0  0  0  0  0  0  0  0  0  0  0  0
    3.5453   60.4933   -4.5265 C   0  0  0  0  0  0  0  0  0  0  0  0
    2.3905   60.5452   -3.7689 C   0  0  0  0  0  0  0  0  0  0  0  0
    2.3275   59.7656   -2.6192 C   0  0  0  0  0  0  0  0  0  0  0  0
    3.3867   58.9631   -2.2450 C   0  0  0  0  0  0  0  0  0  0  0  0
    3.3242   58.1870   -1.1031 C   0  0  0  0  0  0  0  0  0  0  0  0
    4.3769   57.3982   -0.7466 C   0  0  0  0  0  0  0  0  0  0  0  0
    5.5133   57.3627   -1.5152 C   0  0  0  0  0  0  0  0  0  0  0  0
    5.5483   58.1485   -2.6508 C   0  0  0  0  0  0  0  0  0  0  0  0
    4.5229   58.9483   -3.0420 C   0  0  0  0  0  0  0  0  0  0  0  0
    7.0278   61.5306   -7.0592 C   0  0  0  0  0  0  0  0  0  0  0  0
    7.9197   62.1198   -7.9307 C   0  0  0  0  0  0  0  0  0  0  0  0
    9.1067   62.6589   -7.4858 C   0  0  0  0  0  0  0  0  0  0  0  0
   10.0036   63.2511   -8.3595 O   0  0  0  0  0  0  0  0  0  0  0  0
  1  2  2  0
  2  3  1  0
  2  4  1  0
  4  5  2  0
  5  6  1  0
  6  7  1  0
  7  8  1  0
  8  9  1  0
  9 10  2  0
 10 11  1  0
 11 12  2  0
 12 13  1  0
 13 14  2  0
 14 15  1  0
 15 16  2  0
 16 17  1  0
 17 18  2  0
  6 19  2  0
 19 20  1  0
 20 21  2  0
 21 22  1  0
 21  4  1  0
 18  9  1  0
 18 13  1  0
M  END
$$$$
